@<TRIPOS>MOLECULE
*****
 292 0 0 0 0
SMALL
GASTEIGER

@<TRIPOS>ATOM
      1 XX          4.7837   29.1014   20.7543 Du      1  UNL1        0.0000
      2 XX          4.7837   29.1014   30.7543 Du      2  UNL2        0.0000
      3 XX          4.7837   29.1014   32.7543 Du      3  UNL3        0.0000
      4 XX          4.7837   31.1014   20.7543 Du      4  UNL4        0.0000
      5 XX          4.7837   31.1014   30.7543 Du      5  UNL5        0.0000
      6 XX          4.7837   31.1014   32.7543 Du      6  UNL6        0.0000
      7 XX          6.7837   23.1014   26.7543 Du      7  UNL7        0.0000
      8 XX          6.7837   23.1014   28.7543 Du      8  UNL8        0.0000
      9 XX          6.7837   23.1014   30.7543 Du      9  UNL9        0.0000
     10 XX          6.7837   25.1014   28.7543 Du     10  UNL10       0.0000
     11 XX          6.7837   25.1014   30.7543 Du     11  UNL11       0.0000
     12 XX          6.7837   27.1014   18.7543 Du     12  UNL12       0.0000
     13 XX          6.7837   27.1014   20.7543 Du     13  UNL13       0.0000
     14 XX          6.7837   27.1014   28.7543 Du     14  UNL14       0.0000
     15 XX          6.7837   27.1014   30.7543 Du     15  UNL15       0.0000
     16 XX          6.7837   27.1014   32.7543 Du     16  UNL16       0.0000
     17 XX          6.7837   29.1014   18.7543 Du     17  UNL17       0.0000
     18 XX          6.7837   29.1014   20.7543 Du     18  UNL18       0.0000
     19 XX          6.7837   29.1014   22.7543 Du     19  UNL19       0.0000
     20 XX          6.7837   29.1014   28.7543 Du     20  UNL20       0.0000
     21 XX          6.7837   29.1014   30.7543 Du     21  UNL21       0.0000
     22 XX          6.7837   29.1014   32.7543 Du     22  UNL22       0.0000
     23 XX          6.7837   31.1014   18.7543 Du     23  UNL23       0.0000
     24 XX          6.7837   31.1014   20.7543 Du     24  UNL24       0.0000
     25 XX          6.7837   31.1014   22.7543 Du     25  UNL25       0.0000
     26 XX          6.7837   31.1014   24.7543 Du     26  UNL26       0.0000
     27 XX          6.7837   31.1014   28.7543 Du     27  UNL27       0.0000
     28 XX          6.7837   31.1014   30.7543 Du     28  UNL28       0.0000
     29 XX          6.7837   31.1014   32.7543 Du     29  UNL29       0.0000
     30 XX          6.7837   33.1014   18.7543 Du     30  UNL30       0.0000
     31 XX          6.7837   33.1014   20.7543 Du     31  UNL31       0.0000
     32 XX          6.7837   33.1014   22.7543 Du     32  UNL32       0.0000
     33 XX          6.7837   33.1014   28.7543 Du     33  UNL33       0.0000
     34 XX          6.7837   33.1014   30.7543 Du     34  UNL34       0.0000
     35 XX          6.7837   33.1014   32.7543 Du     35  UNL35       0.0000
     36 XX          8.7837   21.1014   26.7543 Du     36  UNL36       0.0000
     37 XX          8.7837   21.1014   28.7543 Du     37  UNL37       0.0000
     38 XX          8.7837   21.1014   30.7543 Du     38  UNL38       0.0000
     39 XX          8.7837   23.1014   24.7543 Du     39  UNL39       0.0000
     40 XX          8.7837   23.1014   26.7543 Du     40  UNL40       0.0000
     41 XX          8.7837   23.1014   28.7543 Du     41  UNL41       0.0000
     42 XX          8.7837   23.1014   30.7543 Du     42  UNL42       0.0000
     43 XX          8.7837   23.1014   32.7543 Du     43  UNL43       0.0000
     44 XX          8.7837   23.1014   34.7543 Du     44  UNL44       0.0000
     45 XX          8.7837   25.1014   24.7543 Du     45  UNL45       0.0000
     46 XX          8.7837   25.1014   26.7543 Du     46  UNL46       0.0000
     47 XX          8.7837   25.1014   28.7543 Du     47  UNL47       0.0000
     48 XX          8.7837   25.1014   30.7543 Du     48  UNL48       0.0000
     49 XX          8.7837   25.1014   32.7543 Du     49  UNL49       0.0000
     50 XX          8.7837   25.1014   34.7543 Du     50  UNL50       0.0000
     51 XX          8.7837   27.1014   18.7543 Du     51  UNL51       0.0000
     52 XX          8.7837   27.1014   20.7543 Du     52  UNL52       0.0000
     53 XX          8.7837   27.1014   22.7543 Du     53  UNL53       0.0000
     54 XX          8.7837   27.1014   24.7543 Du     54  UNL54       0.0000
     55 XX          8.7837   27.1014   26.7543 Du     55  UNL55       0.0000
     56 XX          8.7837   27.1014   28.7543 Du     56  UNL56       0.0000
     57 XX          8.7837   27.1014   30.7543 Du     57  UNL57       0.0000
     58 XX          8.7837   27.1014   32.7543 Du     58  UNL58       0.0000
     59 XX          8.7837   29.1014   18.7543 Du     59  UNL59       0.0000
     60 XX          8.7837   29.1014   20.7543 Du     60  UNL60       0.0000
     61 XX          8.7837   29.1014   22.7543 Du     61  UNL61       0.0000
     62 XX          8.7837   29.1014   24.7543 Du     62  UNL62       0.0000
     63 XX          8.7837   29.1014   26.7543 Du     63  UNL63       0.0000
     64 XX          8.7837   29.1014   28.7543 Du     64  UNL64       0.0000
     65 XX          8.7837   29.1014   30.7543 Du     65  UNL65       0.0000
     66 XX          8.7837   29.1014   32.7543 Du     66  UNL66       0.0000
     67 XX          8.7837   31.1014   18.7543 Du     67  UNL67       0.0000
     68 XX          8.7837   31.1014   20.7543 Du     68  UNL68       0.0000
     69 XX          8.7837   31.1014   22.7543 Du     69  UNL69       0.0000
     70 XX          8.7837   31.1014   24.7543 Du     70  UNL70       0.0000
     71 XX          8.7837   31.1014   26.7543 Du     71  UNL71       0.0000
     72 XX          8.7837   31.1014   28.7543 Du     72  UNL72       0.0000
     73 XX          8.7837   31.1014   30.7543 Du     73  UNL73       0.0000
     74 XX          8.7837   31.1014   32.7543 Du     74  UNL74       0.0000
     75 XX          8.7837   33.1014   18.7543 Du     75  UNL75       0.0000
     76 XX          8.7837   33.1014   20.7543 Du     76  UNL76       0.0000
     77 XX          8.7837   33.1014   22.7543 Du     77  UNL77       0.0000
     78 XX          8.7837   33.1014   24.7543 Du     78  UNL78       0.0000
     79 XX          8.7837   33.1014   26.7543 Du     79  UNL79       0.0000
     80 XX          8.7837   33.1014   28.7543 Du     80  UNL80       0.0000
     81 XX          8.7837   33.1014   30.7543 Du     81  UNL81       0.0000
     82 XX          8.7837   33.1014   32.7543 Du     82  UNL82       0.0000
     83 XX         10.7837   21.1014   26.7543 Du     83  UNL83       0.0000
     84 XX         10.7837   21.1014   28.7543 Du     84  UNL84       0.0000
     85 XX         10.7837   21.1014   30.7543 Du     85  UNL85       0.0000
     86 XX         10.7837   21.1014   32.7543 Du     86  UNL86       0.0000
     87 XX         10.7837   21.1014   34.7543 Du     87  UNL87       0.0000
     88 XX         10.7837   21.1014   38.7543 Du     88  UNL88       0.0000
     89 XX         10.7837   21.1014   40.7543 Du     89  UNL89       0.0000
     90 XX         10.7837   23.1014   24.7543 Du     90  UNL90       0.0000
     91 XX         10.7837   23.1014   26.7543 Du     91  UNL91       0.0000
     92 XX         10.7837   23.1014   28.7543 Du     92  UNL92       0.0000
     93 XX         10.7837   23.1014   30.7543 Du     93  UNL93       0.0000
     94 XX         10.7837   23.1014   32.7543 Du     94  UNL94       0.0000
     95 XX         10.7837   23.1014   34.7543 Du     95  UNL95       0.0000
     96 XX         10.7837   23.1014   36.7543 Du     96  UNL96       0.0000
     97 XX         10.7837   23.1014   38.7543 Du     97  UNL97       0.0000
     98 XX         10.7837   23.1014   40.7543 Du     98  UNL98       0.0000
     99 XX         10.7837   25.1014   22.7543 Du     99  UNL99       0.0000
    100 XX         10.7837   25.1014   24.7543 Du    100  UNL100      0.0000
    101 XX         10.7837   25.1014   26.7543 Du    101  UNL101      0.0000
    102 XX         10.7837   25.1014   28.7543 Du    102  UNL102      0.0000
    103 XX         10.7837   25.1014   30.7543 Du    103  UNL103      0.0000
    104 XX         10.7837   25.1014   32.7543 Du    104  UNL104      0.0000
    105 XX         10.7837   25.1014   34.7543 Du    105  UNL105      0.0000
    106 XX         10.7837   25.1014   36.7543 Du    106  UNL106      0.0000
    107 XX         10.7837   25.1014   38.7543 Du    107  UNL107      0.0000
    108 XX         10.7837   27.1014   20.7543 Du    108  UNL108      0.0000
    109 XX         10.7837   27.1014   22.7543 Du    109  UNL109      0.0000
    110 XX         10.7837   27.1014   24.7543 Du    110  UNL110      0.0000
    111 XX         10.7837   27.1014   26.7543 Du    111  UNL111      0.0000
    112 XX         10.7837   27.1014   28.7543 Du    112  UNL112      0.0000
    113 XX         10.7837   27.1014   30.7543 Du    113  UNL113      0.0000
    114 XX         10.7837   27.1014   32.7543 Du    114  UNL114      0.0000
    115 XX         10.7837   27.1014   34.7543 Du    115  UNL115      0.0000
    116 XX         10.7837   29.1014   20.7543 Du    116  UNL116      0.0000
    117 XX         10.7837   29.1014   22.7543 Du    117  UNL117      0.0000
    118 XX         10.7837   29.1014   24.7543 Du    118  UNL118      0.0000
    119 XX         10.7837   29.1014   26.7543 Du    119  UNL119      0.0000
    120 XX         10.7837   29.1014   28.7543 Du    120  UNL120      0.0000
    121 XX         10.7837   29.1014   30.7543 Du    121  UNL121      0.0000
    122 XX         10.7837   29.1014   32.7543 Du    122  UNL122      0.0000
    123 XX         10.7837   31.1014   20.7543 Du    123  UNL123      0.0000
    124 XX         10.7837   31.1014   22.7543 Du    124  UNL124      0.0000
    125 XX         10.7837   31.1014   24.7543 Du    125  UNL125      0.0000
    126 XX         10.7837   31.1014   26.7543 Du    126  UNL126      0.0000
    127 XX         10.7837   31.1014   28.7543 Du    127  UNL127      0.0000
    128 XX         10.7837   31.1014   30.7543 Du    128  UNL128      0.0000
    129 XX         10.7837   33.1014   20.7543 Du    129  UNL129      0.0000
    130 XX         10.7837   33.1014   22.7543 Du    130  UNL130      0.0000
    131 XX         10.7837   33.1014   24.7543 Du    131  UNL131      0.0000
    132 XX         10.7837   33.1014   26.7543 Du    132  UNL132      0.0000
    133 XX         10.7837   33.1014   28.7543 Du    133  UNL133      0.0000
    134 XX         10.7837   33.1014   30.7543 Du    134  UNL134      0.0000
    135 XX         12.7837   19.1014   32.7543 Du    135  UNL135      0.0000
    136 XX         12.7837   19.1014   36.7543 Du    136  UNL136      0.0000
    137 XX         12.7837   19.1014   38.7543 Du    137  UNL137      0.0000
    138 XX         12.7837   19.1014   40.7543 Du    138  UNL138      0.0000
    139 XX         12.7837   21.1014   28.7543 Du    139  UNL139      0.0000
    140 XX         12.7837   21.1014   30.7543 Du    140  UNL140      0.0000
    141 XX         12.7837   21.1014   32.7543 Du    141  UNL141      0.0000
    142 XX         12.7837   21.1014   34.7543 Du    142  UNL142      0.0000
    143 XX         12.7837   21.1014   36.7543 Du    143  UNL143      0.0000
    144 XX         12.7837   21.1014   38.7543 Du    144  UNL144      0.0000
    145 XX         12.7837   21.1014   40.7543 Du    145  UNL145      0.0000
    146 XX         12.7837   21.1014   42.7543 Du    146  UNL146      0.0000
    147 XX         12.7837   23.1014   26.7543 Du    147  UNL147      0.0000
    148 XX         12.7837   23.1014   28.7543 Du    148  UNL148      0.0000
    149 XX         12.7837   23.1014   30.7543 Du    149  UNL149      0.0000
    150 XX         12.7837   23.1014   32.7543 Du    150  UNL150      0.0000
    151 XX         12.7837   23.1014   34.7543 Du    151  UNL151      0.0000
    152 XX         12.7837   23.1014   36.7543 Du    152  UNL152      0.0000
    153 XX         12.7837   23.1014   38.7543 Du    153  UNL153      0.0000
    154 XX         12.7837   23.1014   40.7543 Du    154  UNL154      0.0000
    155 XX         12.7837   25.1014   22.7543 Du    155  UNL155      0.0000
    156 XX         12.7837   25.1014   24.7543 Du    156  UNL156      0.0000
    157 XX         12.7837   25.1014   26.7543 Du    157  UNL157      0.0000
    158 XX         12.7837   25.1014   28.7543 Du    158  UNL158      0.0000
    159 XX         12.7837   25.1014   30.7543 Du    159  UNL159      0.0000
    160 XX         12.7837   25.1014   32.7543 Du    160  UNL160      0.0000
    161 XX         12.7837   25.1014   34.7543 Du    161  UNL161      0.0000
    162 XX         12.7837   25.1014   36.7543 Du    162  UNL162      0.0000
    163 XX         12.7837   25.1014   38.7543 Du    163  UNL163      0.0000
    164 XX         12.7837   25.1014   40.7543 Du    164  UNL164      0.0000
    165 XX         12.7837   27.1014   22.7543 Du    165  UNL165      0.0000
    166 XX         12.7837   27.1014   24.7543 Du    166  UNL166      0.0000
    167 XX         12.7837   27.1014   26.7543 Du    167  UNL167      0.0000
    168 XX         12.7837   27.1014   28.7543 Du    168  UNL168      0.0000
    169 XX         12.7837   27.1014   30.7543 Du    169  UNL169      0.0000
    170 XX         12.7837   27.1014   32.7543 Du    170  UNL170      0.0000
    171 XX         12.7837   27.1014   34.7543 Du    171  UNL171      0.0000
    172 XX         12.7837   27.1014   36.7543 Du    172  UNL172      0.0000
    173 XX         12.7837   27.1014   38.7543 Du    173  UNL173      0.0000
    174 XX         12.7837   27.1014   40.7543 Du    174  UNL174      0.0000
    175 XX         12.7837   29.1014   22.7543 Du    175  UNL175      0.0000
    176 XX         12.7837   29.1014   24.7543 Du    176  UNL176      0.0000
    177 XX         12.7837   29.1014   26.7543 Du    177  UNL177      0.0000
    178 XX         12.7837   29.1014   28.7543 Du    178  UNL178      0.0000
    179 XX         12.7837   29.1014   30.7543 Du    179  UNL179      0.0000
    180 XX         12.7837   31.1014   22.7543 Du    180  UNL180      0.0000
    181 XX         12.7837   31.1014   24.7543 Du    181  UNL181      0.0000
    182 XX         12.7837   31.1014   26.7543 Du    182  UNL182      0.0000
    183 XX         12.7837   31.1014   28.7543 Du    183  UNL183      0.0000
    184 XX         14.7837   19.1014   36.7543 Du    184  UNL184      0.0000
    185 XX         14.7837   19.1014   38.7543 Du    185  UNL185      0.0000
    186 XX         14.7837   19.1014   40.7543 Du    186  UNL186      0.0000
    187 XX         14.7837   21.1014   30.7543 Du    187  UNL187      0.0000
    188 XX         14.7837   21.1014   32.7543 Du    188  UNL188      0.0000
    189 XX         14.7837   21.1014   34.7543 Du    189  UNL189      0.0000
    190 XX         14.7837   21.1014   36.7543 Du    190  UNL190      0.0000
    191 XX         14.7837   21.1014   38.7543 Du    191  UNL191      0.0000
    192 XX         14.7837   21.1014   40.7543 Du    192  UNL192      0.0000
    193 XX         14.7837   21.1014   42.7543 Du    193  UNL193      0.0000
    194 XX         14.7837   23.1014   28.7543 Du    194  UNL194      0.0000
    195 XX         14.7837   23.1014   30.7543 Du    195  UNL195      0.0000
    196 XX         14.7837   23.1014   32.7543 Du    196  UNL196      0.0000
    197 XX         14.7837   23.1014   34.7543 Du    197  UNL197      0.0000
    198 XX         14.7837   23.1014   36.7543 Du    198  UNL198      0.0000
    199 XX         14.7837   23.1014   38.7543 Du    199  UNL199      0.0000
    200 XX         14.7837   23.1014   40.7543 Du    200  UNL200      0.0000
    201 XX         14.7837   23.1014   42.7543 Du    201  UNL201      0.0000
    202 XX         14.7837   25.1014   24.7543 Du    202  UNL202      0.0000
    203 XX         14.7837   25.1014   26.7543 Du    203  UNL203      0.0000
    204 XX         14.7837   25.1014   32.7543 Du    204  UNL204      0.0000
    205 XX         14.7837   25.1014   34.7543 Du    205  UNL205      0.0000
    206 XX         14.7837   25.1014   36.7543 Du    206  UNL206      0.0000
    207 XX         14.7837   25.1014   38.7543 Du    207  UNL207      0.0000
    208 XX         14.7837   25.1014   40.7543 Du    208  UNL208      0.0000
    209 XX         14.7837   25.1014   42.7543 Du    209  UNL209      0.0000
    210 XX         14.7837   27.1014   22.7543 Du    210  UNL210      0.0000
    211 XX         14.7837   27.1014   24.7543 Du    211  UNL211      0.0000
    212 XX         14.7837   27.1014   26.7543 Du    212  UNL212      0.0000
    213 XX         14.7837   27.1014   28.7543 Du    213  UNL213      0.0000
    214 XX         14.7837   27.1014   30.7543 Du    214  UNL214      0.0000
    215 XX         14.7837   27.1014   32.7543 Du    215  UNL215      0.0000
    216 XX         14.7837   27.1014   34.7543 Du    216  UNL216      0.0000
    217 XX         14.7837   27.1014   36.7543 Du    217  UNL217      0.0000
    218 XX         14.7837   27.1014   38.7543 Du    218  UNL218      0.0000
    219 XX         14.7837   27.1014   40.7543 Du    219  UNL219      0.0000
    220 XX         14.7837   27.1014   42.7543 Du    220  UNL220      0.0000
    221 XX         14.7837   29.1014   22.7543 Du    221  UNL221      0.0000
    222 XX         14.7837   29.1014   24.7543 Du    222  UNL222      0.0000
    223 XX         14.7837   29.1014   26.7543 Du    223  UNL223      0.0000
    224 XX         14.7837   29.1014   28.7543 Du    224  UNL224      0.0000
    225 XX         14.7837   29.1014   34.7543 Du    225  UNL225      0.0000
    226 XX         14.7837   29.1014   36.7543 Du    226  UNL226      0.0000
    227 XX         14.7837   29.1014   38.7543 Du    227  UNL227      0.0000
    228 XX         14.7837   29.1014   40.7543 Du    228  UNL228      0.0000
    229 XX         14.7837   29.1014   42.7543 Du    229  UNL229      0.0000
    230 XX         14.7837   31.1014   24.7543 Du    230  UNL230      0.0000
    231 XX         14.7837   31.1014   26.7543 Du    231  UNL231      0.0000
    232 XX         16.7837   19.1014   36.7543 Du    232  UNL232      0.0000
    233 XX         16.7837   19.1014   38.7543 Du    233  UNL233      0.0000
    234 XX         16.7837   19.1014   40.7543 Du    234  UNL234      0.0000
    235 XX         16.7837   21.1014   36.7543 Du    235  UNL235      0.0000
    236 XX         16.7837   21.1014   38.7543 Du    236  UNL236      0.0000
    237 XX         16.7837   21.1014   40.7543 Du    237  UNL237      0.0000
    238 XX         16.7837   21.1014   42.7543 Du    238  UNL238      0.0000
    239 XX         16.7837   23.1014   34.7543 Du    239  UNL239      0.0000
    240 XX         16.7837   23.1014   36.7543 Du    240  UNL240      0.0000
    241 XX         16.7837   23.1014   38.7543 Du    241  UNL241      0.0000
    242 XX         16.7837   23.1014   40.7543 Du    242  UNL242      0.0000
    243 XX         16.7837   23.1014   42.7543 Du    243  UNL243      0.0000
    244 XX         16.7837   23.1014   44.7543 Du    244  UNL244      0.0000
    245 XX         16.7837   25.1014   24.7543 Du    245  UNL245      0.0000
    246 XX         16.7837   25.1014   34.7543 Du    246  UNL246      0.0000
    247 XX         16.7837   25.1014   36.7543 Du    247  UNL247      0.0000
    248 XX         16.7837   25.1014   38.7543 Du    248  UNL248      0.0000
    249 XX         16.7837   25.1014   40.7543 Du    249  UNL249      0.0000
    250 XX         16.7837   25.1014   42.7543 Du    250  UNL250      0.0000
    251 XX         16.7837   25.1014   44.7543 Du    251  UNL251      0.0000
    252 XX         16.7837   27.1014   24.7543 Du    252  UNL252      0.0000
    253 XX         16.7837   27.1014   26.7543 Du    253  UNL253      0.0000
    254 XX         16.7837   27.1014   32.7543 Du    254  UNL254      0.0000
    255 XX         16.7837   27.1014   34.7543 Du    255  UNL255      0.0000
    256 XX         16.7837   27.1014   36.7543 Du    256  UNL256      0.0000
    257 XX         16.7837   27.1014   38.7543 Du    257  UNL257      0.0000
    258 XX         16.7837   27.1014   40.7543 Du    258  UNL258      0.0000
    259 XX         16.7837   27.1014   42.7543 Du    259  UNL259      0.0000
    260 XX         16.7837   27.1014   44.7543 Du    260  UNL260      0.0000
    261 XX         16.7837   29.1014   24.7543 Du    261  UNL261      0.0000
    262 XX         16.7837   29.1014   26.7543 Du    262  UNL262      0.0000
    263 XX         16.7837   29.1014   34.7543 Du    263  UNL263      0.0000
    264 XX         16.7837   29.1014   36.7543 Du    264  UNL264      0.0000
    265 XX         16.7837   29.1014   38.7543 Du    265  UNL265      0.0000
    266 XX         16.7837   29.1014   40.7543 Du    266  UNL266      0.0000
    267 XX         16.7837   29.1014   42.7543 Du    267  UNL267      0.0000
    268 XX         16.7837   29.1014   44.7543 Du    268  UNL268      0.0000
    269 XX         16.7837   31.1014   40.7543 Du    269  UNL269      0.0000
    270 XX         18.7837   21.1014   38.7543 Du    270  UNL270      0.0000
    271 XX         18.7837   21.1014   40.7543 Du    271  UNL271      0.0000
    272 XX         18.7837   21.1014   42.7543 Du    272  UNL272      0.0000
    273 XX         18.7837   23.1014   38.7543 Du    273  UNL273      0.0000
    274 XX         18.7837   23.1014   40.7543 Du    274  UNL274      0.0000
    275 XX         18.7837   23.1014   42.7543 Du    275  UNL275      0.0000
    276 XX         18.7837   23.1014   44.7543 Du    276  UNL276      0.0000
    277 XX         18.7837   23.1014   46.7543 Du    277  UNL277      0.0000
    278 XX         18.7837   25.1014   36.7543 Du    278  UNL278      0.0000
    279 XX         18.7837   25.1014   38.7543 Du    279  UNL279      0.0000
    280 XX         18.7837   25.1014   40.7543 Du    280  UNL280      0.0000
    281 XX         18.7837   25.1014   44.7543 Du    281  UNL281      0.0000
    282 XX         18.7837   25.1014   46.7543 Du    282  UNL282      0.0000
    283 XX         18.7837   27.1014   34.7543 Du    283  UNL283      0.0000
    284 XX         18.7837   27.1014   36.7543 Du    284  UNL284      0.0000
    285 XX         18.7837   27.1014   38.7543 Du    285  UNL285      0.0000
    286 XX         18.7837   27.1014   40.7543 Du    286  UNL286      0.0000
    287 XX         18.7837   27.1014   42.7543 Du    287  UNL287      0.0000
    288 XX         18.7837   27.1014   44.7543 Du    288  UNL288      0.0000
    289 XX         18.7837   27.1014   46.7543 Du    289  UNL289      0.0000
    290 XX         18.7837   29.1014   36.7543 Du    290  UNL290      0.0000
    291 XX         18.7837   29.1014   42.7543 Du    291  UNL291      0.0000
    292 XX         20.7837   23.1014   40.7543 Du    292  UNL292      0.0000
@<TRIPOS>BOND
