@<TRIPOS>MOLECULE
*****
 182 0 0 0 0
SMALL
GASTEIGER

@<TRIPOS>ATOM
      1 XX         16.3049    6.3209    7.0240 Du      1  UNL1        0.0000
      2 XX         18.3049   -1.6791    3.0240 Du      2  UNL2        0.0000
      3 XX         18.3049   -1.6791    5.0240 Du      3  UNL3        0.0000
      4 XX         18.3049    0.3209    3.0240 Du      4  UNL4        0.0000
      5 XX         18.3049    0.3209    5.0240 Du      5  UNL5        0.0000
      6 XX         18.3049    0.3209    7.0240 Du      6  UNL6        0.0000
      7 XX         18.3049    2.3209    3.0240 Du      7  UNL7        0.0000
      8 XX         18.3049    2.3209    5.0240 Du      8  UNL8        0.0000
      9 XX         18.3049    2.3209    7.0240 Du      9  UNL9        0.0000
     10 XX         18.3049    4.3209    3.0240 Du     10  UNL10       0.0000
     11 XX         18.3049    4.3209    5.0240 Du     11  UNL11       0.0000
     12 XX         18.3049    4.3209    7.0240 Du     12  UNL12       0.0000
     13 XX         18.3049    6.3209    3.0240 Du     13  UNL13       0.0000
     14 XX         18.3049    6.3209    5.0240 Du     14  UNL14       0.0000
     15 XX         18.3049    6.3209    7.0240 Du     15  UNL15       0.0000
     16 XX         18.3049    8.3209    7.0240 Du     16  UNL16       0.0000
     17 XX         20.3049   -1.6791    3.0240 Du     17  UNL17       0.0000
     18 XX         20.3049   -1.6791    5.0240 Du     18  UNL18       0.0000
     19 XX         20.3049    0.3209    1.0240 Du     19  UNL19       0.0000
     20 XX         20.3049    0.3209    3.0240 Du     20  UNL20       0.0000
     21 XX         20.3049    0.3209    5.0240 Du     21  UNL21       0.0000
     22 XX         20.3049    0.3209    7.0240 Du     22  UNL22       0.0000
     23 XX         20.3049    2.3209   -0.9760 Du     23  UNL23       0.0000
     24 XX         20.3049    2.3209    1.0240 Du     24  UNL24       0.0000
     25 XX         20.3049    2.3209    3.0240 Du     25  UNL25       0.0000
     26 XX         20.3049    2.3209    5.0240 Du     26  UNL26       0.0000
     27 XX         20.3049    2.3209    7.0240 Du     27  UNL27       0.0000
     28 XX         20.3049    4.3209    1.0240 Du     28  UNL28       0.0000
     29 XX         20.3049    4.3209    3.0240 Du     29  UNL29       0.0000
     30 XX         20.3049    4.3209    5.0240 Du     30  UNL30       0.0000
     31 XX         20.3049    4.3209    7.0240 Du     31  UNL31       0.0000
     32 XX         20.3049    4.3209    9.0240 Du     32  UNL32       0.0000
     33 XX         20.3049    6.3209    1.0240 Du     33  UNL33       0.0000
     34 XX         20.3049    6.3209    3.0240 Du     34  UNL34       0.0000
     35 XX         20.3049    6.3209    5.0240 Du     35  UNL35       0.0000
     36 XX         20.3049    6.3209    7.0240 Du     36  UNL36       0.0000
     37 XX         20.3049    8.3209    3.0240 Du     37  UNL37       0.0000
     38 XX         20.3049    8.3209    5.0240 Du     38  UNL38       0.0000
     39 XX         22.3049   -1.6791    1.0240 Du     39  UNL39       0.0000
     40 XX         22.3049   -1.6791    3.0240 Du     40  UNL40       0.0000
     41 XX         22.3049   -1.6791    5.0240 Du     41  UNL41       0.0000
     42 XX         22.3049    0.3209   -2.9760 Du     42  UNL42       0.0000
     43 XX         22.3049    0.3209   -0.9760 Du     43  UNL43       0.0000
     44 XX         22.3049    0.3209    1.0240 Du     44  UNL44       0.0000
     45 XX         22.3049    0.3209    3.0240 Du     45  UNL45       0.0000
     46 XX         22.3049    0.3209    5.0240 Du     46  UNL46       0.0000
     47 XX         22.3049    0.3209    7.0240 Du     47  UNL47       0.0000
     48 XX         22.3049    2.3209   -2.9760 Du     48  UNL48       0.0000
     49 XX         22.3049    2.3209   -0.9760 Du     49  UNL49       0.0000
     50 XX         22.3049    2.3209    1.0240 Du     50  UNL50       0.0000
     51 XX         22.3049    2.3209    3.0240 Du     51  UNL51       0.0000
     52 XX         22.3049    2.3209    5.0240 Du     52  UNL52       0.0000
     53 XX         22.3049    2.3209    7.0240 Du     53  UNL53       0.0000
     54 XX         22.3049    2.3209    9.0240 Du     54  UNL54       0.0000
     55 XX         22.3049    4.3209   -0.9760 Du     55  UNL55       0.0000
     56 XX         22.3049    4.3209    1.0240 Du     56  UNL56       0.0000
     57 XX         22.3049    4.3209    3.0240 Du     57  UNL57       0.0000
     58 XX         22.3049    4.3209    5.0240 Du     58  UNL58       0.0000
     59 XX         22.3049    4.3209    7.0240 Du     59  UNL59       0.0000
     60 XX         22.3049    4.3209    9.0240 Du     60  UNL60       0.0000
     61 XX         22.3049    6.3209   -0.9760 Du     61  UNL61       0.0000
     62 XX         22.3049    6.3209    1.0240 Du     62  UNL62       0.0000
     63 XX         22.3049    6.3209    3.0240 Du     63  UNL63       0.0000
     64 XX         22.3049    6.3209    5.0240 Du     64  UNL64       0.0000
     65 XX         22.3049    6.3209    7.0240 Du     65  UNL65       0.0000
     66 XX         22.3049    8.3209    1.0240 Du     66  UNL66       0.0000
     67 XX         22.3049    8.3209    3.0240 Du     67  UNL67       0.0000
     68 XX         22.3049    8.3209    5.0240 Du     68  UNL68       0.0000
     69 XX         24.3049   -1.6791   -0.9760 Du     69  UNL69       0.0000
     70 XX         24.3049   -1.6791    1.0240 Du     70  UNL70       0.0000
     71 XX         24.3049   -1.6791    3.0240 Du     71  UNL71       0.0000
     72 XX         24.3049   -1.6791    9.0240 Du     72  UNL72       0.0000
     73 XX         24.3049    0.3209   -0.9760 Du     73  UNL73       0.0000
     74 XX         24.3049    0.3209    1.0240 Du     74  UNL74       0.0000
     75 XX         24.3049    0.3209    3.0240 Du     75  UNL75       0.0000
     76 XX         24.3049    0.3209    5.0240 Du     76  UNL76       0.0000
     77 XX         24.3049    0.3209    7.0240 Du     77  UNL77       0.0000
     78 XX         24.3049    0.3209    9.0240 Du     78  UNL78       0.0000
     79 XX         24.3049    2.3209   -2.9760 Du     79  UNL79       0.0000
     80 XX         24.3049    2.3209   -0.9760 Du     80  UNL80       0.0000
     81 XX         24.3049    2.3209    1.0240 Du     81  UNL81       0.0000
     82 XX         24.3049    2.3209    3.0240 Du     82  UNL82       0.0000
     83 XX         24.3049    2.3209    5.0240 Du     83  UNL83       0.0000
     84 XX         24.3049    2.3209    7.0240 Du     84  UNL84       0.0000
     85 XX         24.3049    2.3209    9.0240 Du     85  UNL85       0.0000
     86 XX         24.3049    4.3209   -2.9760 Du     86  UNL86       0.0000
     87 XX         24.3049    4.3209   -0.9760 Du     87  UNL87       0.0000
     88 XX         24.3049    4.3209    1.0240 Du     88  UNL88       0.0000
     89 XX         24.3049    4.3209    3.0240 Du     89  UNL89       0.0000
     90 XX         24.3049    4.3209    5.0240 Du     90  UNL90       0.0000
     91 XX         24.3049    4.3209    7.0240 Du     91  UNL91       0.0000
     92 XX         24.3049    4.3209    9.0240 Du     92  UNL92       0.0000
     93 XX         24.3049    6.3209   -0.9760 Du     93  UNL93       0.0000
     94 XX         24.3049    6.3209    1.0240 Du     94  UNL94       0.0000
     95 XX         24.3049    6.3209    3.0240 Du     95  UNL95       0.0000
     96 XX         24.3049    6.3209    5.0240 Du     96  UNL96       0.0000
     97 XX         24.3049    6.3209    7.0240 Du     97  UNL97       0.0000
     98 XX         24.3049    8.3209   -0.9760 Du     98  UNL98       0.0000
     99 XX         24.3049    8.3209    1.0240 Du     99  UNL99       0.0000
    100 XX         24.3049    8.3209    3.0240 Du    100  UNL100      0.0000
    101 XX         24.3049    8.3209    5.0240 Du    101  UNL101      0.0000
    102 XX         24.3049    8.3209    7.0240 Du    102  UNL102      0.0000
    103 XX         24.3049   10.3209    3.0240 Du    103  UNL103      0.0000
    104 XX         24.3049   10.3209    5.0240 Du    104  UNL104      0.0000
    105 XX         26.3049   -1.6791    1.0240 Du    105  UNL105      0.0000
    106 XX         26.3049   -1.6791    3.0240 Du    106  UNL106      0.0000
    107 XX         26.3049   -1.6791    7.0240 Du    107  UNL107      0.0000
    108 XX         26.3049   -1.6791    9.0240 Du    108  UNL108      0.0000
    109 XX         26.3049    0.3209   -0.9760 Du    109  UNL109      0.0000
    110 XX         26.3049    0.3209    1.0240 Du    110  UNL110      0.0000
    111 XX         26.3049    0.3209    3.0240 Du    111  UNL111      0.0000
    112 XX         26.3049    0.3209    5.0240 Du    112  UNL112      0.0000
    113 XX         26.3049    0.3209    7.0240 Du    113  UNL113      0.0000
    114 XX         26.3049    0.3209    9.0240 Du    114  UNL114      0.0000
    115 XX         26.3049    2.3209   -0.9760 Du    115  UNL115      0.0000
    116 XX         26.3049    2.3209    1.0240 Du    116  UNL116      0.0000
    117 XX         26.3049    2.3209    3.0240 Du    117  UNL117      0.0000
    118 XX         26.3049    2.3209    5.0240 Du    118  UNL118      0.0000
    119 XX         26.3049    2.3209    7.0240 Du    119  UNL119      0.0000
    120 XX         26.3049    2.3209    9.0240 Du    120  UNL120      0.0000
    121 XX         26.3049    4.3209   -0.9760 Du    121  UNL121      0.0000
    122 XX         26.3049    4.3209    1.0240 Du    122  UNL122      0.0000
    123 XX         26.3049    4.3209    3.0240 Du    123  UNL123      0.0000
    124 XX         26.3049    4.3209    5.0240 Du    124  UNL124      0.0000
    125 XX         26.3049    4.3209    7.0240 Du    125  UNL125      0.0000
    126 XX         26.3049    6.3209   -2.9760 Du    126  UNL126      0.0000
    127 XX         26.3049    6.3209   -0.9760 Du    127  UNL127      0.0000
    128 XX         26.3049    6.3209    1.0240 Du    128  UNL128      0.0000
    129 XX         26.3049    6.3209    3.0240 Du    129  UNL129      0.0000
    130 XX         26.3049    6.3209    5.0240 Du    130  UNL130      0.0000
    131 XX         26.3049    6.3209    7.0240 Du    131  UNL131      0.0000
    132 XX         26.3049    8.3209   -0.9760 Du    132  UNL132      0.0000
    133 XX         26.3049    8.3209    1.0240 Du    133  UNL133      0.0000
    134 XX         26.3049    8.3209    3.0240 Du    134  UNL134      0.0000
    135 XX         26.3049    8.3209    5.0240 Du    135  UNL135      0.0000
    136 XX         26.3049   10.3209    3.0240 Du    136  UNL136      0.0000
    137 XX         26.3049   10.3209    5.0240 Du    137  UNL137      0.0000
    138 XX         28.3049   -1.6791    3.0240 Du    138  UNL138      0.0000
    139 XX         28.3049   -1.6791    7.0240 Du    139  UNL139      0.0000
    140 XX         28.3049   -1.6791    9.0240 Du    140  UNL140      0.0000
    141 XX         28.3049    0.3209    1.0240 Du    141  UNL141      0.0000
    142 XX         28.3049    0.3209    3.0240 Du    142  UNL142      0.0000
    143 XX         28.3049    0.3209    5.0240 Du    143  UNL143      0.0000
    144 XX         28.3049    0.3209    7.0240 Du    144  UNL144      0.0000
    145 XX         28.3049    0.3209    9.0240 Du    145  UNL145      0.0000
    146 XX         28.3049    2.3209    1.0240 Du    146  UNL146      0.0000
    147 XX         28.3049    2.3209    3.0240 Du    147  UNL147      0.0000
    148 XX         28.3049    2.3209    5.0240 Du    148  UNL148      0.0000
    149 XX         28.3049    2.3209    7.0240 Du    149  UNL149      0.0000
    150 XX         28.3049    2.3209    9.0240 Du    150  UNL150      0.0000
    151 XX         28.3049    4.3209   -0.9760 Du    151  UNL151      0.0000
    152 XX         28.3049    4.3209    1.0240 Du    152  UNL152      0.0000
    153 XX         28.3049    4.3209    3.0240 Du    153  UNL153      0.0000
    154 XX         28.3049    4.3209    5.0240 Du    154  UNL154      0.0000
    155 XX         28.3049    4.3209    7.0240 Du    155  UNL155      0.0000
    156 XX         28.3049    6.3209   -0.9760 Du    156  UNL156      0.0000
    157 XX         28.3049    6.3209    1.0240 Du    157  UNL157      0.0000
    158 XX         28.3049    6.3209    3.0240 Du    158  UNL158      0.0000
    159 XX         28.3049    6.3209    5.0240 Du    159  UNL159      0.0000
    160 XX         28.3049    8.3209   -0.9760 Du    160  UNL160      0.0000
    161 XX         28.3049    8.3209    1.0240 Du    161  UNL161      0.0000
    162 XX         28.3049    8.3209    3.0240 Du    162  UNL162      0.0000
    163 XX         28.3049    8.3209    5.0240 Du    163  UNL163      0.0000
    164 XX         28.3049   10.3209    1.0240 Du    164  UNL164      0.0000
    165 XX         28.3049   10.3209    3.0240 Du    165  UNL165      0.0000
    166 XX         30.3049    0.3209    3.0240 Du    166  UNL166      0.0000
    167 XX         30.3049    0.3209    5.0240 Du    167  UNL167      0.0000
    168 XX         30.3049    0.3209    7.0240 Du    168  UNL168      0.0000
    169 XX         30.3049    2.3209    1.0240 Du    169  UNL169      0.0000
    170 XX         30.3049    2.3209    3.0240 Du    170  UNL170      0.0000
    171 XX         30.3049    2.3209    5.0240 Du    171  UNL171      0.0000
    172 XX         30.3049    2.3209    7.0240 Du    172  UNL172      0.0000
    173 XX         30.3049    4.3209    1.0240 Du    173  UNL173      0.0000
    174 XX         30.3049    4.3209    3.0240 Du    174  UNL174      0.0000
    175 XX         30.3049    4.3209    5.0240 Du    175  UNL175      0.0000
    176 XX         30.3049    6.3209   -0.9760 Du    176  UNL176      0.0000
    177 XX         30.3049    6.3209    1.0240 Du    177  UNL177      0.0000
    178 XX         30.3049    6.3209    3.0240 Du    178  UNL178      0.0000
    179 XX         30.3049    6.3209    5.0240 Du    179  UNL179      0.0000
    180 XX         30.3049    8.3209   -0.9760 Du    180  UNL180      0.0000
    181 XX         30.3049    8.3209    1.0240 Du    181  UNL181      0.0000
    182 XX         30.3049    8.3209    3.0240 Du    182  UNL182      0.0000
@<TRIPOS>BOND
